/*--------------------------------*- C++ -*----------------------------------*\
| =========                 |                                                 |
| \\      /  F ield         | OpenFOAM: The Open Source CFD Toolbox           |
|  \\    /   O peration     | Version:  2.4.0                                 |
|   \\  /    A nd           | Web:      www.OpenFOAM.org                      |
|    \\/     M anipulation  |                                                 |
\*---------------------------------------------------------------------------*/
FoamFile
{
    version     2.0;
    format      ascii;
    class       dictionary;
    object      blockMeshDict;
}
// * * * * * * * * * * * * * * * * * * * * * * * * * * * * * * * * * * * * * //

convertToMeters 0.001;         // Scaling to convert to millimeters

vertices
(
    (0 0 0)                    // Vertex 0           
    (1 0 0)                    // Vertex 1
    (0 1 0)                    // Vertex 2
    (1 1 0)                    // Vertex 3
    (0 0 1)                    // Vertex 4
    (1 0 1)                    // Vertex 5
    (1 1 1)                    // Vertex 6
    (0 1 1)                    // Vertex 7
);

blocks
(
    hex (0 1 3 2 4 5 6 7)      // Vertex list for creation of a hexahedral cell    
    (5 5 5)                    // No. of cells in each direction
    simpleGrading (1 1 1)      // Cell expansion ratios
);

boundary                       // Contains definition of boundary patches
(
    sides                      // Boundary patch name
    {
        type patch;
        faces
        (
            (4 0 2 7)          // Boundary face definitions
            (1 5 6 3)
            (0 1 3 2)
            (4 5 6 7)
        );
    }
    bottom
    {
        type patch;
        faces
        (
            (0 1 5 4)
        );
    } 
    top
    {
        type patch;
        faces
        (
            (2 3 6 7)
        );
    }
);


// ************************************************************************* //
